Circuit: * C:\Users\adamp\Documents\Digital\Digital\Breadboard\7400-Series-IC-Digital-Circuits\0 Transistor Logic Gates\NAND\nand_gate.asc

Warning: Multiple definitions of model "2scr375p" Type: BJT
Warning: Multiple definitions of model "bc857b" Type: BJT
Warning: Multiple definitions of model "bc847c" Type: BJT
Warning: Multiple definitions of model "bc847b" Type: BJT
Direct Newton iteration for .op point succeeded.

Date: Tue Jan 23 03:05:14 2024
Total elapsed time: 0.111 seconds.

tnom = 27
temp = 27
method = modified trap
totiter = 3286
traniter = 3260
tranpoints = 1525
accept = 1448
rejected = 77
matrix size = 16
fillins = 0
solver = Normal
Avg thread counts: 2.8/4.8/4.9/2.8
Matrix Compiler1: 930 bytes object code size  0.3/0.2/[0.2]
Matrix Compiler2: off  [0.1]/0.1/0.2

