Circuit: * C:\Users\adamp\Documents\Digital\Digital\Breadboard\7400-Series-IC-Digital-Circuits\0 Transistor Logic Gates\OR\or_gate.asc

Warning: Multiple definitions of model "2scr375p" Type: BJT
Warning: Multiple definitions of model "bc857b" Type: BJT
Warning: Multiple definitions of model "bc847c" Type: BJT
Warning: Multiple definitions of model "bc847b" Type: BJT
Direct Newton iteration for .op point succeeded.

Date: Tue Jan 23 03:08:40 2024
Total elapsed time: 0.123 seconds.

tnom = 27
temp = 27
method = modified trap
totiter = 3062
traniter = 3056
tranpoints = 1459
accept = 1389
rejected = 70
matrix size = 15
fillins = 0
solver = Normal
Avg thread counts: 2.9/5.0/5.0/2.9
Matrix Compiler1:      49 opcodes  0.2/[0.1]/0.2
Matrix Compiler2: off  [0.1]/0.2/0.2

