Circuit: * C:\Users\adamp\Documents\Digital\Digital\Breadboard\7400-Series-IC-Digital-Circuits\0 Transistor Logic Gates\AND\and_gate.asc

Warning: Multiple definitions of model "2scr375p" Type: BJT
Warning: Multiple definitions of model "bc857b" Type: BJT
Warning: Multiple definitions of model "bc847c" Type: BJT
Warning: Multiple definitions of model "bc847b" Type: BJT
Direct Newton iteration for .op point succeeded.

Date: Tue Jan 23 02:34:30 2024
Total elapsed time: 0.129 seconds.

tnom = 27
temp = 27
method = modified trap
totiter = 3190
traniter = 3163
tranpoints = 1511
accept = 1437
rejected = 74
matrix size = 16
fillins = 0
solver = Normal
Avg thread counts: 2.9/4.9/4.9/2.9
Matrix Compiler1: 948 bytes object code size  0.4/0.2/[0.2]
Matrix Compiler2: off  [0.2]/0.2/0.2

