Circuit: * C:\Users\adamp\Documents\Digital\Digital\Breadboard\7400-Series-IC-Digital-Circuits\0 Transistor Logic Gates\XOR\xor_gate.asc

Warning: Multiple definitions of model "2scr375p" Type: BJT
Warning: Multiple definitions of model "bc857b" Type: BJT
Warning: Multiple definitions of model "bc847c" Type: BJT
Warning: Multiple definitions of model "bc847b" Type: BJT
Direct Newton iteration for .op point succeeded.

Date: Tue Jan 23 12:15:08 2024
Total elapsed time: 0.132 seconds.

tnom = 27
temp = 27
method = modified trap
totiter = 3435
traniter = 3408
tranpoints = 1587
accept = 1491
rejected = 96
matrix size = 29
fillins = 6
solver = Normal
Avg thread counts: 2.7/4.7/4.7/2.7
Matrix Compiler1: 2.06 KB object code size  0.6/0.4/[0.2]
Matrix Compiler2: off  [0.3]/0.3/0.3

