Circuit: * C:\Users\adamp\Documents\Digital\Digital\Breadboard\7400-Series-IC-Digital-Circuits\0 Transistor Logic Gates\NOT\not_gate.asc

Warning: Multiple definitions of model "2scr375p" Type: BJT
Warning: Multiple definitions of model "bc857b" Type: BJT
Warning: Multiple definitions of model "bc847c" Type: BJT
Warning: Multiple definitions of model "bc847b" Type: BJT
Direct Newton iteration for .op point succeeded.

Date: Tue Jan 23 03:02:24 2024
Total elapsed time: 0.123 seconds.

tnom = 27
temp = 27
method = modified trap
totiter = 2449
traniter = 2443
tranpoints = 1183
accept = 1149
rejected = 34
matrix size = 9
fillins = 0
solver = Normal
Avg thread counts: 3.4/6.0/6.0/3.4
Matrix Compiler1: 474 bytes object code size  0.2/0.2/[0.1]
Matrix Compiler2: off  [0.1]/0.1/0.1

